<?xml version="1.0" encoding="UTF-8"?>

<!-- generated on 2021-09-29 01:21:45 by Eclipse SUMO netconvert Version 1.10.0
<configuration xmlns:xsi="http://www.w3.org/2001/XMLSchema-instance" xsi:noNamespaceSchemaLocation="http://sumo.dlr.de/xsd/netconvertConfiguration.xsd">

    <input>
        <osm-files value="map.osm"/>
    </input>

    <output>
        <output-file value="map.net.xml"/>
    </output>

    <projection>
        <proj.utm value="true"/>
    </projection>

    <processing>
        <geometry.remove value="true"/>
    </processing>

    <junctions>
        <junctions.join value="true"/>
    </junctions>

    <report>
        <aggregate-warnings value="5"/>
    </report>

</configuration>
-->

<net version="1.9" junctionCornerDetail="5" limitTurnSpeed="5.50" xmlns:xsi="http://www.w3.org/2001/XMLSchema-instance" xsi:noNamespaceSchemaLocation="http://sumo.dlr.de/xsd/net_file.xsd">

    <location netOffset="-575166.77,-2982888.70" convBoundary="0.00,0.00,1477.84,1570.08" origBoundary="75.757400,26.965905,75.772322,26.980091" projParameter="+proj=utm +zone=43 +ellps=WGS84 +datum=WGS84 +units=m +no_defs"/>

    <type id="highway.bridleway" priority="1" numLanes="1" speed="2.78" allow="pedestrian" oneway="1" width="2.00"/>
    <type id="highway.bus_guideway" priority="1" numLanes="1" speed="27.78" allow="bus" oneway="1"/>
    <type id="highway.cycleway" priority="1" numLanes="1" speed="8.33" allow="bicycle" oneway="0" width="1.00"/>
    <type id="highway.footway" priority="1" numLanes="1" speed="2.78" allow="pedestrian" oneway="1" width="2.00"/>
    <type id="highway.ford" priority="1" numLanes="1" speed="2.78" allow="army" oneway="0"/>
    <type id="highway.living_street" priority="2" numLanes="1" speed="2.78" disallow="tram rail_urban rail rail_electric rail_fast ship" oneway="0"/>
    <type id="highway.motorway" priority="14" numLanes="2" speed="39.44" allow="private emergency authority army vip passenger hov taxi bus coach delivery truck trailer motorcycle evehicle custom1 custom2" oneway="1"/>
    <type id="highway.motorway_link" priority="9" numLanes="1" speed="22.22" allow="private emergency authority army vip passenger hov taxi bus coach delivery truck trailer motorcycle evehicle custom1 custom2" oneway="1"/>
    <type id="highway.path" priority="1" numLanes="1" speed="2.78" allow="pedestrian bicycle" oneway="0" width="2.00"/>
    <type id="highway.pedestrian" priority="1" numLanes="1" speed="2.78" allow="pedestrian" oneway="1" width="2.00"/>
    <type id="highway.primary" priority="12" numLanes="2" speed="27.78" disallow="tram rail_urban rail rail_electric rail_fast ship" oneway="0"/>
    <type id="highway.primary_link" priority="7" numLanes="1" speed="22.22" disallow="tram rail_urban rail rail_electric rail_fast ship" oneway="0"/>
    <type id="highway.raceway" priority="15" numLanes="2" speed="83.33" allow="vip" oneway="0"/>
    <type id="highway.residential" priority="3" numLanes="1" speed="13.89" disallow="tram rail_urban rail rail_electric rail_fast ship" oneway="0"/>
    <type id="highway.secondary" priority="11" numLanes="1" speed="27.78" disallow="tram rail_urban rail rail_electric rail_fast ship" oneway="0"/>
    <type id="highway.secondary_link" priority="6" numLanes="1" speed="22.22" disallow="tram rail_urban rail rail_electric rail_fast ship" oneway="0"/>
    <type id="highway.service" priority="1" numLanes="1" speed="5.56" allow="pedestrian delivery bicycle" oneway="0"/>
    <type id="highway.stairs" priority="1" numLanes="1" speed="1.39" allow="pedestrian" oneway="1" width="2.00"/>
    <type id="highway.step" priority="1" numLanes="1" speed="1.39" allow="pedestrian" oneway="1" width="2.00"/>
    <type id="highway.steps" priority="1" numLanes="1" speed="1.39" allow="pedestrian" oneway="1" width="2.00"/>
    <type id="highway.tertiary" priority="10" numLanes="1" speed="22.22" disallow="tram rail_urban rail rail_electric rail_fast ship" oneway="0"/>
    <type id="highway.tertiary_link" priority="5" numLanes="1" speed="22.22" disallow="tram rail_urban rail rail_electric rail_fast ship" oneway="0"/>
    <type id="highway.track" priority="1" numLanes="1" speed="5.56" allow="pedestrian motorcycle moped bicycle" oneway="0"/>
    <type id="highway.trunk" priority="13" numLanes="2" speed="27.78" disallow="pedestrian bicycle tram rail_urban rail rail_electric rail_fast ship" oneway="0"/>
    <type id="highway.trunk_link" priority="8" numLanes="1" speed="22.22" disallow="pedestrian bicycle tram rail_urban rail rail_electric rail_fast ship" oneway="0"/>
    <type id="highway.unclassified" priority="4" numLanes="1" speed="13.89" disallow="tram rail_urban rail rail_electric rail_fast ship" oneway="0"/>
    <type id="highway.unsurfaced" priority="1" numLanes="1" speed="8.33" disallow="tram rail_urban rail rail_electric rail_fast ship" oneway="0"/>
    <type id="railway.highspeed" priority="21" numLanes="1" speed="69.44" allow="rail_fast" oneway="1"/>
    <type id="railway.light_rail" priority="19" numLanes="1" speed="27.78" allow="rail_urban" oneway="1"/>
    <type id="railway.preserved" priority="16" numLanes="1" speed="27.78" allow="rail" oneway="1"/>
    <type id="railway.rail" priority="20" numLanes="1" speed="44.44" allow="rail" oneway="1"/>
    <type id="railway.subway" priority="18" numLanes="1" speed="27.78" allow="rail_urban" oneway="1"/>
    <type id="railway.tram" priority="17" numLanes="1" speed="13.89" allow="tram" oneway="1"/>

    <edge id=":2414234333_0" function="internal">
        <lane id=":2414234333_0_0" index="0" disallow="tram rail_urban rail rail_electric rail_fast ship" speed="5.02" length="9.58" shape="8.66,460.66 5.31,459.90 3.97,460.12 4.62,461.31 7.27,463.49"/>
    </edge>
    <edge id=":2414234360_0" function="internal">
        <lane id=":2414234360_0_0" index="0" disallow="tram rail_urban rail rail_electric rail_fast ship" speed="22.22" length="9.78" shape="794.19,485.83 797.08,485.99 799.06,486.21 801.01,486.61 803.82,487.31"/>
    </edge>
    <edge id=":2414234360_1" function="internal">
        <lane id=":2414234360_1_0" index="0" disallow="tram rail_urban rail rail_electric rail_fast ship" speed="6.27" length="8.26" shape="794.19,485.83 796.92,486.20 798.86,487.01 799.99,488.25 800.32,489.93"/>
    </edge>
    <edge id=":2414234360_2" function="internal">
        <lane id=":2414234360_2_0" index="0" disallow="tram rail_urban rail rail_electric rail_fast ship" speed="5.90" length="1.67" shape="797.12,489.81 797.57,488.20"/>
    </edge>
    <edge id=":2414234360_3" function="internal">
        <lane id=":2414234360_3_0" index="0" disallow="tram rail_urban rail rail_electric rail_fast ship" speed="3.65" length="1.61" shape="797.12,489.81 797.97,488.64 798.12,488.57"/>
    </edge>
    <edge id=":2414234360_4" function="internal">
        <lane id=":2414234360_4_0" index="0" disallow="tram rail_urban rail rail_electric rail_fast ship" speed="5.90" length="6.73" shape="797.57,488.20 797.60,488.10 798.88,487.11 800.95,486.85 803.82,487.31"/>
    </edge>
    <edge id=":2414234360_5" function="internal">
        <lane id=":2414234360_5_0" index="0" disallow="tram rail_urban rail rail_electric rail_fast ship" speed="3.65" length="3.06" shape="798.12,488.57 798.78,488.27 799.57,488.70 800.32,489.93"/>
    </edge>
    <edge id=":2692620534_0" function="internal">
        <lane id=":2692620534_0_0" index="0" disallow="tram rail_urban rail rail_electric rail_fast ship" speed="3.65" length="4.67" shape="744.88,-1.46 746.30,-1.22 746.99,-0.65 746.94,0.25 746.17,1.46"/>
    </edge>
    <edge id=":2692620556_0" function="internal">
        <lane id=":2692620556_0_0" index="0" disallow="tram rail_urban rail rail_electric rail_fast ship" speed="7.64" length="10.02" shape="545.83,851.42 543.56,852.25 541.86,853.75 540.71,855.91 540.12,858.74"/>
    </edge>
    <edge id=":2692620556_1" function="internal">
        <lane id=":2692620556_1_0" index="0" disallow="tram rail_urban rail rail_electric rail_fast ship" speed="13.89" length="14.25" shape="545.83,851.42 542.24,852.16 538.77,852.77 535.31,852.96 531.75,852.48"/>
    </edge>
    <edge id=":2692620556_2" function="internal">
        <lane id=":2692620556_2_0" index="0" disallow="tram rail_urban rail rail_electric rail_fast ship" speed="3.65" length="2.34" shape="545.83,851.42 544.50,850.87 543.96,850.16"/>
    </edge>
    <edge id=":2692620556_9" function="internal">
        <lane id=":2692620556_9_0" index="0" disallow="tram rail_urban rail rail_electric rail_fast ship" speed="3.65" length="2.34" shape="543.96,850.16 544.20,849.30 545.22,848.28"/>
    </edge>
    <edge id=":2692620556_3" function="internal">
        <lane id=":2692620556_3_0" index="0" disallow="tram rail_urban rail rail_electric rail_fast ship" speed="13.89" length="13.64" shape="531.74,849.17 535.20,849.68 538.46,849.54 541.73,849.00 545.22,848.28"/>
    </edge>
    <edge id=":2692620556_4" function="internal">
        <lane id=":2692620556_4_0" index="0" disallow="tram rail_urban rail rail_electric rail_fast ship" speed="8.43" length="5.27" shape="531.74,849.17 535.67,850.63 536.53,851.29"/>
    </edge>
    <edge id=":2692620556_5" function="internal">
        <lane id=":2692620556_5_0" index="0" disallow="tram rail_urban rail rail_electric rail_fast ship" speed="3.69" length="2.69" shape="531.74,849.17 532.98,850.00 533.40,850.82 533.27,851.07"/>
    </edge>
    <edge id=":2692620556_10" function="internal">
        <lane id=":2692620556_10_0" index="0" disallow="tram rail_urban rail rail_electric rail_fast ship" speed="8.43" length="8.75" shape="536.53,851.29 538.38,852.71 539.86,855.41 540.12,858.74"/>
    </edge>
    <edge id=":2692620556_11" function="internal">
        <lane id=":2692620556_11_0" index="0" disallow="tram rail_urban rail rail_electric rail_fast ship" speed="3.69" length="2.13" shape="533.27,851.07 532.99,851.65 531.75,852.48"/>
    </edge>
    <edge id=":2692620556_6" function="internal">
        <lane id=":2692620556_6_0" index="0" disallow="tram rail_urban rail rail_electric rail_fast ship" speed="6.77" length="8.71" shape="536.94,858.43 536.78,856.36 535.86,854.67 534.18,853.38 531.75,852.48"/>
    </edge>
    <edge id=":2692620556_7" function="internal">
        <lane id=":2692620556_7_0" index="0" disallow="tram rail_urban rail rail_electric rail_fast ship" speed="8.98" length="14.16" shape="536.94,858.43 537.77,854.53 539.43,851.54 541.91,849.46 545.22,848.28"/>
    </edge>
    <edge id=":2692620556_8" function="internal">
        <lane id=":2692620556_8_0" index="0" disallow="tram rail_urban rail rail_electric rail_fast ship" speed="3.65" length="4.67" shape="536.94,858.43 537.85,857.31 538.69,856.99 539.44,857.47 540.12,858.74"/>
    </edge>
    <edge id=":2692620566_0" function="internal">
        <lane id=":2692620566_0_0" index="0" disallow="tram rail_urban rail rail_electric rail_fast ship" speed="13.89" length="13.76" shape="496.49,801.42 495.86,804.96 495.35,808.28 495.25,811.58 495.85,815.04"/>
    </edge>
    <edge id=":2692620566_1" function="internal">
        <lane id=":2692620566_1_0" index="0" disallow="tram rail_urban rail rail_electric rail_fast ship" speed="8.42" length="5.96" shape="496.49,801.42 495.37,804.93 493.93,806.70"/>
    </edge>
    <edge id=":2692620566_2" function="internal">
        <lane id=":2692620566_2_0" index="0" disallow="tram rail_urban rail rail_electric rail_fast ship" speed="3.65" length="2.34" shape="496.49,801.42 495.51,802.48 494.65,802.74"/>
    </edge>
    <edge id=":2692620566_9" function="internal">
        <lane id=":2692620566_9_0" index="0" disallow="tram rail_urban rail rail_electric rail_fast ship" speed="8.42" length="8.09" shape="493.93,806.70 493.34,807.41 490.40,808.87 486.54,809.31"/>
    </edge>
    <edge id=":2692620566_10" function="internal">
        <lane id=":2692620566_10_0" index="0" disallow="tram rail_urban rail rail_electric rail_fast ship" speed="3.65" length="2.34" shape="494.65,802.74 493.93,802.22 493.34,800.90"/>
    </edge>
    <edge id=":2692620566_3" function="internal">
        <lane id=":2692620566_3_0" index="0" disallow="tram rail_urban rail rail_electric rail_fast ship" speed="7.00" length="9.43" shape="486.60,806.11 489.22,805.82 491.21,804.86 492.59,803.22 493.34,800.90"/>
    </edge>
    <edge id=":2692620566_4" function="internal">
        <lane id=":2692620566_4_0" index="0" disallow="tram rail_urban rail rail_electric rail_fast ship" speed="8.92" length="13.84" shape="486.60,806.11 489.70,806.71 492.27,808.40 494.32,811.17 495.85,815.04"/>
    </edge>
    <edge id=":2692620566_5" function="internal">
        <lane id=":2692620566_5_0" index="0" disallow="tram rail_urban rail rail_electric rail_fast ship" speed="3.65" length="4.67" shape="486.60,806.11 487.78,806.93 488.17,807.74 487.76,808.53 486.54,809.31"/>
    </edge>
    <edge id=":2692620566_6" function="internal">
        <lane id=":2692620566_6_0" index="0" disallow="tram rail_urban rail rail_electric rail_fast ship" speed="7.24" length="8.84" shape="492.50,814.96 491.53,812.52 490.21,810.76 488.55,809.69 486.54,809.31"/>
    </edge>
    <edge id=":2692620566_7" function="internal">
        <lane id=":2692620566_7_0" index="0" disallow="tram rail_urban rail rail_electric rail_fast ship" speed="13.89" length="14.22" shape="492.50,814.96 491.93,811.43 492.09,807.98 492.67,804.50 493.34,800.90"/>
    </edge>
    <edge id=":2692620566_8" function="internal">
        <lane id=":2692620566_8_0" index="0" disallow="tram rail_urban rail rail_electric rail_fast ship" speed="3.71" length="2.16" shape="492.50,814.96 493.36,813.72 493.95,813.45"/>
    </edge>
    <edge id=":2692620566_11" function="internal">
        <lane id=":2692620566_11_0" index="0" disallow="tram rail_urban rail rail_electric rail_fast ship" speed="3.71" length="2.74" shape="493.95,813.45 494.21,813.32 495.04,813.76 495.85,815.04"/>
    </edge>
    <edge id=":2692620659_0" function="internal">
        <lane id=":2692620659_0_0" index="0" disallow="tram rail_urban rail rail_electric rail_fast ship" speed="22.22" length="14.30" shape="541.50,953.43 527.20,953.16"/>
    </edge>
    <edge id=":2692620659_1" function="internal">
        <lane id=":2692620659_1_0" index="0" disallow="tram rail_urban rail rail_electric rail_fast ship" speed="7.99" length="5.82" shape="541.50,953.43 537.65,952.76 536.04,951.73"/>
    </edge>
    <edge id=":2692620659_2" function="internal">
        <lane id=":2692620659_2_0" index="0" disallow="tram rail_urban rail rail_electric rail_fast ship" speed="3.65" length="2.34" shape="541.50,953.43 540.32,952.59 539.94,951.78"/>
    </edge>
    <edge id=":2692620659_9" function="internal">
        <lane id=":2692620659_9_0" index="0" disallow="tram rail_urban rail rail_electric rail_fast ship" speed="7.99" length="8.40" shape="536.04,951.73 534.95,951.03 533.40,948.22 532.99,944.34"/>
    </edge>
    <edge id=":2692620659_10" function="internal">
        <lane id=":2692620659_10_0" index="0" disallow="tram rail_urban rail rail_electric rail_fast ship" speed="3.65" length="2.34" shape="539.94,951.78 540.37,950.99 541.59,950.23"/>
    </edge>
    <edge id=":2692620659_3" function="internal">
        <lane id=":2692620659_3_0" index="0" disallow="tram rail_urban rail rail_electric rail_fast ship" speed="6.49" length="9.03" shape="536.18,944.46 536.44,946.92 537.43,948.71 539.15,949.81 541.59,950.23"/>
    </edge>
    <edge id=":2692620659_4" function="internal">
        <lane id=":2692620659_4_0" index="0" disallow="tram rail_urban rail rail_electric rail_fast ship" speed="8.08" length="14.18" shape="536.18,944.46 535.50,948.29 533.78,951.02 531.01,952.65 527.20,953.16"/>
    </edge>
    <edge id=":2692620659_5" function="internal">
        <lane id=":2692620659_5_0" index="0" disallow="tram rail_urban rail rail_electric rail_fast ship" speed="3.65" length="4.67" shape="536.18,944.46 535.34,945.63 534.53,946.00 533.74,945.57 532.99,944.34"/>
    </edge>
    <edge id=":2692620659_6" function="internal">
        <lane id=":2692620659_6_0" index="0" disallow="tram rail_urban rail rail_electric rail_fast ship" speed="6.60" length="9.12" shape="527.22,949.96 529.67,949.63 531.44,948.58 532.55,946.82 532.99,944.34"/>
    </edge>
    <edge id=":2692620659_7" function="internal">
        <lane id=":2692620659_7_0" index="0" disallow="tram rail_urban rail rail_electric rail_fast ship" speed="22.22" length="14.37" shape="527.22,949.96 541.59,950.23"/>
    </edge>
    <edge id=":2692620659_8" function="internal">
        <lane id=":2692620659_8_0" index="0" disallow="tram rail_urban rail rail_electric rail_fast ship" speed="3.65" length="2.34" shape="527.22,949.96 528.42,950.77 528.81,951.58"/>
    </edge>
    <edge id=":2692620659_11" function="internal">
        <lane id=":2692620659_11_0" index="0" disallow="tram rail_urban rail rail_electric rail_fast ship" speed="3.65" length="2.34" shape="528.81,951.58 528.40,952.37 527.20,953.16"/>
    </edge>
    <edge id=":2692620772_0" function="internal">
        <lane id=":2692620772_0_0" index="0" disallow="tram rail_urban rail rail_electric rail_fast ship" speed="6.77" length="9.43" shape="747.02,957.04 744.46,957.51 742.63,958.66 741.52,960.49 741.13,962.99"/>
    </edge>
    <edge id=":2692620772_1" function="internal">
        <lane id=":2692620772_1_0" index="0" disallow="tram rail_urban rail rail_electric rail_fast ship" speed="22.22" length="14.68" shape="747.02,957.04 732.34,957.30"/>
    </edge>
    <edge id=":2692620772_2" function="internal">
        <lane id=":2692620772_2_0" index="0" disallow="tram rail_urban rail rail_electric rail_fast ship" speed="7.92" length="6.27" shape="747.02,957.04 743.07,956.66 741.06,955.54"/>
    </edge>
    <edge id=":2692620772_3" function="internal">
        <lane id=":2692620772_3_0" index="0" disallow="tram rail_urban rail rail_electric rail_fast ship" speed="3.65" length="2.34" shape="747.02,957.04 745.78,956.30 745.35,955.52"/>
    </edge>
    <edge id=":2692620772_16" function="internal">
        <lane id=":2692620772_16_0" index="0" disallow="tram rail_urban rail rail_electric rail_fast ship" speed="7.92" length="8.11" shape="741.06,955.54 740.25,955.10 738.56,952.36 738.00,948.43"/>
    </edge>
    <edge id=":2692620772_17" function="internal">
        <lane id=":2692620772_17_0" index="0" disallow="tram rail_urban rail rail_electric rail_fast ship" speed="3.65" length="2.34" shape="745.35,955.52 745.71,954.70 746.87,953.84"/>
    </edge>
    <edge id=":2692620772_4" function="internal">
        <lane id=":2692620772_4_0" index="0" disallow="tram rail_urban rail rail_electric rail_fast ship" speed="6.41" length="9.04" shape="741.20,948.43 741.55,950.90 742.62,952.62 744.39,953.60 746.87,953.84"/>
    </edge>
    <edge id=":2692620772_5" function="internal">
        <lane id=":2692620772_5_0" index="0" disallow="tram rail_urban rail rail_electric rail_fast ship" speed="13.89" length="14.56" shape="741.20,948.43 741.13,962.99"/>
    </edge>
    <edge id=":2692620772_6" function="internal">
        <lane id=":2692620772_6_0" index="0" disallow="tram rail_urban rail rail_electric rail_fast ship" speed="8.01" length="14.33" shape="741.20,948.43 740.65,952.35 738.98,955.14 736.21,956.78 732.34,957.30"/>
    </edge>
    <edge id=":2692620772_7" function="internal">
        <lane id=":2692620772_7_0" index="0" disallow="tram rail_urban rail rail_electric rail_fast ship" speed="3.65" length="4.67" shape="741.20,948.43 740.40,949.63 739.60,950.03 738.80,949.63 738.00,948.43"/>
    </edge>
    <edge id=":2692620772_8" function="internal">
        <lane id=":2692620772_8_0" index="0" disallow="tram rail_urban rail rail_electric rail_fast ship" speed="6.51" length="9.13" shape="732.38,954.10 734.84,953.77 736.59,952.72 737.65,950.94 738.00,948.43"/>
    </edge>
    <edge id=":2692620772_9" function="internal">
        <lane id=":2692620772_9_0" index="0" disallow="tram rail_urban rail rail_electric rail_fast ship" speed="22.22" length="14.49" shape="732.38,954.10 746.87,953.84"/>
    </edge>
    <edge id=":2692620772_10" function="internal">
        <lane id=":2692620772_10_0" index="0" disallow="tram rail_urban rail rail_electric rail_fast ship" speed="8.02" length="5.64" shape="732.38,954.10 736.24,954.69 737.72,955.60"/>
    </edge>
    <edge id=":2692620772_11" function="internal">
        <lane id=":2692620772_11_0" index="0" disallow="tram rail_urban rail rail_electric rail_fast ship" speed="3.65" length="2.34" shape="732.38,954.10 733.57,954.91 733.96,955.72"/>
    </edge>
    <edge id=":2692620772_18" function="internal">
        <lane id=":2692620772_18_0" index="0" disallow="tram rail_urban rail rail_electric rail_fast ship" speed="8.02" length="8.57" shape="737.72,955.60 738.98,956.38 740.62,959.14 741.13,962.99"/>
    </edge>
    <edge id=":2692620772_19" function="internal">
        <lane id=":2692620772_19_0" index="0" disallow="tram rail_urban rail rail_electric rail_fast ship" speed="3.65" length="2.34" shape="733.96,955.72 733.55,956.51 732.34,957.30"/>
    </edge>
    <edge id=":2692620772_12" function="internal">
        <lane id=":2692620772_12_0" index="0" disallow="tram rail_urban rail rail_electric rail_fast ship" speed="6.53" length="9.07" shape="737.93,962.96 737.60,960.51 736.56,958.75 734.81,957.68 732.34,957.30"/>
    </edge>
    <edge id=":2692620772_13" function="internal">
        <lane id=":2692620772_13_0" index="0" disallow="tram rail_urban rail rail_electric rail_fast ship" speed="13.89" length="14.53" shape="737.93,962.96 738.00,948.43"/>
    </edge>
    <edge id=":2692620772_14" function="internal">
        <lane id=":2692620772_14_0" index="0" disallow="tram rail_urban rail rail_electric rail_fast ship" speed="8.22" length="14.39" shape="737.93,962.96 738.52,959.13 740.21,956.33 742.99,954.57 746.87,953.84"/>
    </edge>
    <edge id=":2692620772_15" function="internal">
        <lane id=":2692620772_15_0" index="0" disallow="tram rail_urban rail rail_electric rail_fast ship" speed="3.65" length="4.67" shape="737.93,962.96 738.74,961.77 739.55,961.38 740.34,961.78 741.13,962.99"/>
    </edge>
    <edge id=":2692620775_0" function="internal">
        <lane id=":2692620775_0_0" index="0" disallow="tram rail_urban rail rail_electric rail_fast ship" speed="6.42" length="9.07" shape="791.67,960.66 791.32,958.17 790.26,956.43 788.48,955.44 786.00,955.20"/>
    </edge>
    <edge id=":2692620775_1" function="internal">
        <lane id=":2692620775_1_0" index="0" disallow="tram rail_urban rail rail_electric rail_fast ship" speed="22.22" length="14.47" shape="791.67,960.66 791.57,946.18"/>
    </edge>
    <edge id=":2692620775_2" function="internal">
        <lane id=":2692620775_2_0" index="0" disallow="tram rail_urban rail rail_electric rail_fast ship" speed="7.89" length="5.87" shape="791.67,960.66 792.24,956.71 793.24,955.11"/>
    </edge>
    <edge id=":2692620775_3" function="internal">
        <lane id=":2692620775_3_0" index="0" disallow="tram rail_urban rail rail_electric rail_fast ship" speed="3.65" length="2.34" shape="791.67,960.66 792.47,959.46 793.27,959.06"/>
    </edge>
    <edge id=":2692620775_16" function="internal">
        <lane id=":2692620775_16_0" index="0" disallow="tram rail_urban rail rail_electric rail_fast ship" speed="7.89" length="8.56" shape="793.24,955.11 793.95,953.97 796.79,952.44 800.76,952.11"/>
    </edge>
    <edge id=":2692620775_17" function="internal">
        <lane id=":2692620775_17_0" index="0" disallow="tram rail_urban rail rail_electric rail_fast ship" speed="3.65" length="2.34" shape="793.27,959.06 794.07,959.46 794.87,960.66"/>
    </edge>
    <edge id=":2692620775_4" function="internal">
        <lane id=":2692620775_4_0" index="0" disallow="tram rail_urban rail rail_electric rail_fast ship" speed="6.38" length="9.04" shape="800.56,955.31 798.08,955.51 796.30,956.47 795.23,958.18 794.87,960.66"/>
    </edge>
    <edge id=":2692620775_5" function="internal">
        <lane id=":2692620775_5_0" index="0" disallow="tram rail_urban rail rail_electric rail_fast ship" speed="22.22" length="14.57" shape="800.56,955.31 796.89,955.13 793.29,955.05 789.68,955.07 786.00,955.20"/>
    </edge>
    <edge id=":2692620775_6" function="internal">
        <lane id=":2692620775_6_0" index="0" disallow="tram rail_urban rail rail_electric rail_fast ship" speed="8.28" length="14.37" shape="800.56,955.31 796.68,954.53 793.88,952.75 792.18,949.97 791.57,946.18"/>
    </edge>
    <edge id=":2692620775_7" function="internal">
        <lane id=":2692620775_7_0" index="0" disallow="tram rail_urban rail rail_electric rail_fast ship" speed="3.65" length="4.67" shape="800.56,955.31 799.42,954.43 799.07,953.61 799.51,952.84 800.76,952.11"/>
    </edge>
    <edge id=":2692620775_8" function="internal">
        <lane id=":2692620775_8_0" index="0" disallow="tram rail_urban rail rail_electric rail_fast ship" speed="6.84" length="9.49" shape="794.77,946.14 795.18,948.61 796.31,950.44 798.17,951.60 800.76,952.11"/>
    </edge>
    <edge id=":2692620775_9" function="internal">
        <lane id=":2692620775_9_0" index="0" disallow="tram rail_urban rail rail_electric rail_fast ship" speed="22.22" length="14.52" shape="794.77,946.14 794.87,960.66"/>
    </edge>
    <edge id=":2692620775_10" function="internal">
        <lane id=":2692620775_10_0" index="0" disallow="tram rail_urban rail rail_electric rail_fast ship" speed="8.12" length="5.94" shape="794.77,946.14 794.27,949.94 793.21,951.75"/>
    </edge>
    <edge id=":2692620775_11" function="internal">
        <lane id=":2692620775_11_0" index="0" disallow="tram rail_urban rail rail_electric rail_fast ship" speed="3.65" length="2.34" shape="794.77,946.14 793.99,947.35 793.20,947.76"/>
    </edge>
    <edge id=":2692620775_18" function="internal">
        <lane id=":2692620775_18_0" index="0" disallow="tram rail_urban rail rail_electric rail_fast ship" speed="8.12" length="8.34" shape="793.21,951.75 792.64,952.72 789.89,954.48 786.00,955.20"/>
    </edge>
    <edge id=":2692620775_19" function="internal">
        <lane id=":2692620775_19_0" index="0" disallow="tram rail_urban rail rail_electric rail_fast ship" speed="3.65" length="2.34" shape="793.20,947.76 792.39,947.37 791.57,946.18"/>
    </edge>
    <edge id=":2692620775_12" function="internal">
        <lane id=":2692620775_12_0" index="0" disallow="tram rail_urban rail rail_electric rail_fast ship" speed="6.65" length="9.24" shape="785.85,952.00 788.39,951.54 790.18,950.41 791.25,948.63 791.57,946.18"/>
    </edge>
    <edge id=":2692620775_13" function="internal">
        <lane id=":2692620775_13_0" index="0" disallow="tram rail_urban rail rail_electric rail_fast ship" speed="22.22" length="14.92" shape="785.85,952.00 789.59,951.88 793.31,951.85 797.03,951.93 800.76,952.11"/>
    </edge>
    <edge id=":2692620775_14" function="internal">
        <lane id=":2692620775_14_0" index="0" disallow="tram rail_urban rail rail_electric rail_fast ship" speed="7.93" length="14.41" shape="785.85,952.00 789.80,952.38 792.62,953.95 794.31,956.71 794.87,960.66"/>
    </edge>
    <edge id=":2692620775_15" function="internal">
        <lane id=":2692620775_15_0" index="0" disallow="tram rail_urban rail rail_electric rail_fast ship" speed="3.65" length="4.67" shape="785.85,952.00 787.09,952.75 787.53,953.53 787.16,954.34 786.00,955.20"/>
    </edge>
    <edge id=":2692620800_0" function="internal">
        <lane id=":2692620800_0_0" index="0" disallow="tram rail_urban rail rail_electric rail_fast ship" speed="13.89" length="14.01" shape="743.66,530.23 743.16,544.23"/>
    </edge>
    <edge id=":2692620800_1" function="internal">
        <lane id=":2692620800_1_0" index="0" disallow="tram rail_urban rail rail_electric rail_fast ship" speed="8.09" length="5.58" shape="743.66,530.23 742.88,533.94 741.87,535.41"/>
    </edge>
    <edge id=":2692620800_2" function="internal">
        <lane id=":2692620800_2_0" index="0" disallow="tram rail_urban rail rail_electric rail_fast ship" speed="3.65" length="2.34" shape="743.66,530.23 742.79,531.37 741.96,531.72"/>
    </edge>
    <edge id=":2692620800_9" function="internal">
        <lane id=":2692620800_9_0" index="0" disallow="tram rail_urban rail rail_electric rail_fast ship" speed="8.09" length="8.44" shape="741.87,535.41 741.08,536.57 738.28,538.11 734.47,538.57"/>
    </edge>
    <edge id=":2692620800_10" function="internal">
        <lane id=":2692620800_10_0" index="0" disallow="tram rail_urban rail rail_electric rail_fast ship" speed="3.65" length="2.34" shape="741.96,531.72 741.19,531.27 740.47,530.02"/>
    </edge>
    <edge id=":2692620800_3" function="internal">
        <lane id=":2692620800_3_0" index="0" disallow="tram rail_urban rail rail_electric rail_fast ship" speed="6.61" length="9.02" shape="734.54,535.37 737.00,535.08 738.81,534.09 739.96,532.40 740.47,530.02"/>
    </edge>
    <edge id=":2692620800_4" function="internal">
        <lane id=":2692620800_4_0" index="0" disallow="tram rail_urban rail rail_electric rail_fast ship" speed="8.00" length="14.05" shape="734.54,535.37 738.33,535.99 741.03,537.67 742.64,540.42 743.16,544.23"/>
    </edge>
    <edge id=":2692620800_5" function="internal">
        <lane id=":2692620800_5_0" index="0" disallow="tram rail_urban rail rail_electric rail_fast ship" speed="3.65" length="4.67" shape="734.54,535.37 735.72,536.19 736.10,537.00 735.69,537.79 734.47,538.57"/>
    </edge>
    <edge id=":2692620800_6" function="internal">